MODEL 1
REMARK VINA RESULT:      -8.9      0.000      0.000
REMARK  Name = ZINC000001721128
REMARK                            x       y       z     vdW  Elec       q    Type
REMARK                         _______ _______ _______ _____ _____    ______ ____
ROOT
ATOM      1  N   LIG    1      170.302 172.660 226.765  0.00  0.00    -0.040 NA
ATOM      2  C   LIG    1      170.408 171.346 226.712  0.00  0.00    -0.160 C 
ATOM      3  C   LIG    1      171.558 170.641 227.311  0.00  0.00    +0.560 C 
ATOM      4  N   LIG    1      171.599 169.295 227.218  0.00  0.00    -0.560 N 
ATOM      5  C   LIG    1      170.629 168.605 226.602  0.00  0.00    +0.710 C 
ATOM      6  N   LIG    1      169.557 169.178 226.036  0.00  0.00    -0.560 N 
ATOM      7  C   LIG    1      168.553 168.332 225.387  0.00  0.00    +0.360 C 
ATOM      8  O   LIG    1      170.727 167.395 226.553  0.00  0.00    -0.520 OA
ATOM      9  C   LIG    1      172.730 168.572 227.805  0.00  0.00    +0.360 C 
ATOM     10  O   LIG    1      172.445 171.256 227.873  0.00  0.00    -0.510 OA
ATOM     11  C   LIG    1      169.378 170.515 226.056  0.00  0.00    +0.600 C 
ATOM     12  O   LIG    1      168.400 171.023 225.540  0.00  0.00    -0.460 OA
ENDROOT
BRANCH   1  13
ATOM     13  N   LIG    1      171.295 173.372 227.180  0.00  0.00    -0.440 N 
ATOM     14  H   LIG    1      172.168 172.965 227.296  0.00  0.00    +0.420 HD
BRANCH  13  20
ATOM     15  C   LIG    1      168.360 177.311 227.296  0.00  0.00    +0.100 C 
ATOM     16  C   LIG    1      169.701 176.663 227.529  0.00  0.00    -0.060 A 
ATOM     17  C   LIG    1      170.753 177.412 228.024  0.00  0.00    +0.010 A 
ATOM     18  C   LIG    1      171.985 176.821 228.240  0.00  0.00    +0.050 A 
ATOM     19  C   LIG    1      172.168 175.481 227.961  0.00  0.00    -0.100 A 
ATOM     20  C   LIG    1      171.114 174.725 227.463  0.00  0.00    +0.130 A 
ATOM     21  C   LIG    1      173.511 174.838 228.196  0.00  0.00    +0.100 C 
ATOM     22  C   LIG    1      169.876 175.321 227.253  0.00  0.00    +0.020 A 
ENDBRANCH  13  20
ENDBRANCH   1  13
TORSDOF 2
ENDMDL
MODEL 2
REMARK VINA RESULT:      -8.7      2.483      7.016
REMARK  Name = ZINC000001721128
REMARK                            x       y       z     vdW  Elec       q    Type
REMARK                         _______ _______ _______ _____ _____    ______ ____
ROOT
ATOM      1  N   LIG    1      170.582 172.512 226.893  0.00  0.00    -0.040 NA
ATOM      2  C   LIG    1      170.892 173.770 227.142  0.00  0.00    -0.160 C 
ATOM      3  C   LIG    1      169.850 174.791 227.366  0.00  0.00    +0.560 C 
ATOM      4  N   LIG    1      170.243 176.057 227.616  0.00  0.00    -0.560 N 
ATOM      5  C   LIG    1      171.539 176.393 227.663  0.00  0.00    +0.710 C 
ATOM      6  N   LIG    1      172.538 175.521 227.470  0.00  0.00    -0.560 N 
ATOM      7  C   LIG    1      173.923 175.991 227.543  0.00  0.00    +0.360 C 
ATOM      8  O   LIG    1      171.825 177.551 227.893  0.00  0.00    -0.520 OA
ATOM      9  C   LIG    1      169.228 177.090 227.842  0.00  0.00    +0.360 C 
ATOM     10  O   LIG    1      168.670 174.499 227.326  0.00  0.00    -0.510 OA
ATOM     11  C   LIG    1      172.298 174.217 227.216  0.00  0.00    +0.600 C 
ATOM     12  O   LIG    1      173.213 173.434 227.044  0.00  0.00    -0.460 OA
ENDROOT
BRANCH   1  13
ATOM     13  N   LIG    1      169.357 172.184 226.656  0.00  0.00    -0.440 N 
ATOM     14  H   LIG    1      168.664 172.862 226.661  0.00  0.00    +0.420 HD
BRANCH  13  20
ATOM     15  C   LIG    1      168.012 167.754 228.303  0.00  0.00    +0.100 C 
ATOM     16  C   LIG    1      168.372 168.683 227.171  0.00  0.00    -0.060 A 
ATOM     17  C   LIG    1      168.375 168.216 225.870  0.00  0.00    +0.010 A 
ATOM     18  C   LIG    1      168.704 169.064 224.828  0.00  0.00    +0.050 A 
ATOM     19  C   LIG    1      169.030 170.381 225.085  0.00  0.00    -0.100 A 
ATOM     20  C   LIG    1      169.029 170.854 226.392  0.00  0.00    +0.130 A 
ATOM     21  C   LIG    1      169.389 171.306 223.950  0.00  0.00    +0.100 C 
ATOM     22  C   LIG    1      168.691 170.000 227.435  0.00  0.00    +0.020 A 
ENDBRANCH  13  20
ENDBRANCH   1  13
TORSDOF 2
ENDMDL
MODEL 3
REMARK VINA RESULT:      -8.4      2.604      6.785
REMARK  Name = ZINC000001721128
REMARK                            x       y       z     vdW  Elec       q    Type
REMARK                         _______ _______ _______ _____ _____    ______ ____
ROOT
ATOM      1  N   LIG    1      170.612 172.766 225.735  0.00  0.00    -0.040 NA
ATOM      2  C   LIG    1      171.571 173.613 226.061  0.00  0.00    -0.160 C 
ATOM      3  C   LIG    1      172.918 173.519 225.464  0.00  0.00    +0.560 C 
ATOM      4  N   LIG    1      173.847 174.420 225.845  0.00  0.00    -0.560 N 
ATOM      5  C   LIG    1      173.570 175.379 226.738  0.00  0.00    +0.710 C 
ATOM      6  N   LIG    1      172.371 175.525 227.320  0.00  0.00    -0.560 N 
ATOM      7  C   LIG    1      172.172 176.608 228.285  0.00  0.00    +0.360 C 
ATOM      8  O   LIG    1      174.452 176.159 227.037  0.00  0.00    -0.520 OA
ATOM      9  C   LIG    1      175.192 174.348 225.267  0.00  0.00    +0.360 C 
ATOM     10  O   LIG    1      173.182 172.653 224.651  0.00  0.00    -0.510 OA
ATOM     11  C   LIG    1      171.342 174.701 227.032  0.00  0.00    +0.600 C 
ATOM     12  O   LIG    1      170.258 174.844 227.567  0.00  0.00    -0.460 OA
ENDROOT
BRANCH   1  13
ATOM     13  N   LIG    1      170.885 171.724 225.027  0.00  0.00    -0.440 N 
ATOM     14  H   LIG    1      171.552 171.776 224.324  0.00  0.00    +0.420 HD
BRANCH  13  20
ATOM     15  C   LIG    1      170.518 167.539 227.575  0.00  0.00    +0.100 C 
ATOM     16  C   LIG    1      170.022 168.472 226.500  0.00  0.00    -0.060 A 
ATOM     17  C   LIG    1      168.907 168.134 225.755  0.00  0.00    +0.010 A 
ATOM     18  C   LIG    1      168.447 168.987 224.767  0.00  0.00    +0.050 A 
ATOM     19  C   LIG    1      169.101 170.179 224.523  0.00  0.00    -0.100 A 
ATOM     20  C   LIG    1      170.222 170.521 225.270  0.00  0.00    +0.130 A 
ATOM     21  C   LIG    1      168.600 171.108 223.447  0.00  0.00    +0.100 C 
ATOM     22  C   LIG    1      170.677 169.664 226.265  0.00  0.00    +0.020 A 
ENDBRANCH  13  20
ENDBRANCH   1  13
TORSDOF 2
ENDMDL
MODEL 4
REMARK VINA RESULT:      -7.9      1.271      2.502
REMARK  Name = ZINC000001721128
REMARK                            x       y       z     vdW  Elec       q    Type
REMARK                         _______ _______ _______ _____ _____    ______ ____
ROOT
ATOM      1  N   LIG    1      172.498 172.990 227.326  0.00  0.00    -0.040 NA
ATOM      2  C   LIG    1      172.073 171.748 227.190  0.00  0.00    -0.160 C 
ATOM      3  C   LIG    1      171.231 171.342 226.047  0.00  0.00    +0.560 C 
ATOM      4  N   LIG    1      170.834 170.054 225.975  0.00  0.00    -0.560 N 
ATOM      5  C   LIG    1      171.186 169.158 226.906  0.00  0.00    +0.710 C 
ATOM      6  N   LIG    1      171.947 169.455 227.969  0.00  0.00    -0.560 N 
ATOM      7  C   LIG    1      172.276 168.400 228.931  0.00  0.00    +0.360 C 
ATOM      8  O   LIG    1      170.796 168.015 226.781  0.00  0.00    -0.520 OA
ATOM      9  C   LIG    1      169.999 169.626 224.850  0.00  0.00    +0.360 C 
ATOM     10  O   LIG    1      170.905 172.146 225.194  0.00  0.00    -0.510 OA
ATOM     11  C   LIG    1      172.423 170.701 228.171  0.00  0.00    +0.600 C 
ATOM     12  O   LIG    1      173.114 170.958 229.139  0.00  0.00    -0.460 OA
ENDROOT
BRANCH   1  13
ATOM     13  N   LIG    1      172.033 173.918 226.561  0.00  0.00    -0.440 N 
ATOM     14  H   LIG    1      172.066 173.814 225.597  0.00  0.00    +0.420 HD
BRANCH  13  20
ATOM     15  C   LIG    1      168.072 176.622 227.631  0.00  0.00    +0.100 C 
ATOM     16  C   LIG    1      169.565 176.410 227.651  0.00  0.00    -0.060 A 
ATOM     17  C   LIG    1      170.389 177.362 228.223  0.00  0.00    +0.010 A 
ATOM     18  C   LIG    1      171.759 177.172 228.245  0.00  0.00    +0.050 A 
ATOM     19  C   LIG    1      172.308 176.031 227.694  0.00  0.00    -0.100 A 
ATOM     20  C   LIG    1      171.483 175.072 227.118  0.00  0.00    +0.130 A 
ATOM     21  C   LIG    1      173.801 175.825 227.716  0.00  0.00    +0.100 C 
ATOM     22  C   LIG    1      170.106 175.264 227.104  0.00  0.00    +0.020 A 
ENDBRANCH  13  20
ENDBRANCH   1  13
TORSDOF 2
ENDMDL
MODEL 5
REMARK VINA RESULT:      -7.8      2.669      6.487
REMARK  Name = ZINC000001721128
REMARK                            x       y       z     vdW  Elec       q    Type
REMARK                         _______ _______ _______ _____ _____    ______ ____
ROOT
ATOM      1  N   LIG    1      172.651 171.368 226.669  0.00  0.00    -0.040 NA
ATOM      2  C   LIG    1      173.186 172.572 226.599  0.00  0.00    -0.160 C 
ATOM      3  C   LIG    1      172.487 173.759 227.129  0.00  0.00    +0.560 C 
ATOM      4  N   LIG    1      173.097 174.957 227.022  0.00  0.00    -0.560 N 
ATOM      5  C   LIG    1      174.303 175.082 226.453  0.00  0.00    +0.710 C 
ATOM      6  N   LIG    1      174.996 174.051 225.950  0.00  0.00    -0.560 N 
ATOM      7  C   LIG    1      176.308 174.295 225.348  0.00  0.00    +0.360 C 
ATOM      8  O   LIG    1      174.797 176.191 226.388  0.00  0.00    -0.520 OA
ATOM      9  C   LIG    1      172.424 176.151 227.542  0.00  0.00    +0.360 C 
ATOM     10  O   LIG    1      171.392 173.658 227.649  0.00  0.00    -0.510 OA
ATOM     11  C   LIG    1      174.514 172.790 225.991  0.00  0.00    +0.600 C 
ATOM     12  O   LIG    1      175.153 171.862 225.532  0.00  0.00    -0.460 OA
ENDROOT
BRANCH   1  13
ATOM     13  N   LIG    1      171.422 171.228 227.037  0.00  0.00    -0.440 N 
ATOM     14  H   LIG    1      171.160 171.450 227.944  0.00  0.00    +0.420 HD
BRANCH  13  20
ATOM     15  C   LIG    1      168.922 171.812 222.848  0.00  0.00    +0.100 C 
ATOM     16  C   LIG    1      169.238 171.021 224.091  0.00  0.00    -0.060 A 
ATOM     17  C   LIG    1      168.584 169.827 224.334  0.00  0.00    +0.010 A 
ATOM     18  C   LIG    1      168.871 169.097 225.473  0.00  0.00    +0.050 A 
ATOM     19  C   LIG    1      169.812 169.559 226.372  0.00  0.00    -0.100 A 
ATOM     20  C   LIG    1      170.471 170.758 226.132  0.00  0.00    +0.130 A 
ATOM     21  C   LIG    1      170.124 168.763 227.614  0.00  0.00    +0.100 C 
ATOM     22  C   LIG    1      170.184 171.486 224.983  0.00  0.00    +0.020 A 
ENDBRANCH  13  20
ENDBRANCH   1  13
TORSDOF 2
ENDMDL
MODEL 6
REMARK VINA RESULT:      -7.7      2.209      6.510
REMARK  Name = ZINC000001721128
REMARK                            x       y       z     vdW  Elec       q    Type
REMARK                         _______ _______ _______ _____ _____    ______ ____
ROOT
ATOM      1  N   LIG    1      170.343 172.354 226.702  0.00  0.00    -0.040 NA
ATOM      2  C   LIG    1      170.774 173.577 226.946  0.00  0.00    -0.160 C 
ATOM      3  C   LIG    1      172.205 173.926 226.842  0.00  0.00    +0.560 C 
ATOM      4  N   LIG    1      172.572 175.197 227.106  0.00  0.00    -0.560 N 
ATOM      5  C   LIG    1      171.673 176.128 227.454  0.00  0.00    +0.710 C 
ATOM      6  N   LIG    1      170.360 175.885 227.568  0.00  0.00    -0.560 N 
ATOM      7  C   LIG    1      169.461 176.974 227.955  0.00  0.00    +0.360 C 
ATOM      8  O   LIG    1      172.070 177.254 227.678  0.00  0.00    -0.520 OA
ATOM      9  C   LIG    1      173.986 175.569 227.009  0.00  0.00    +0.360 C 
ATOM     10  O   LIG    1      173.031 173.090 226.526  0.00  0.00    -0.510 OA
ATOM     11  C   LIG    1      169.846 174.660 227.328  0.00  0.00    +0.600 C 
ATOM     12  O   LIG    1      168.652 174.452 227.434  0.00  0.00    -0.460 OA
ENDROOT
BRANCH   1  13
ATOM     13  N   LIG    1      171.188 171.391 226.547  0.00  0.00    -0.440 N 
ATOM     14  H   LIG    1      172.043 171.560 226.122  0.00  0.00    +0.420 HD
BRANCH  13  20
ATOM     15  C   LIG    1      167.825 168.165 228.103  0.00  0.00    +0.100 C 
ATOM     16  C   LIG    1      169.248 168.514 227.752  0.00  0.00    -0.060 A 
ATOM     17  C   LIG    1      170.242 167.559 227.868  0.00  0.00    +0.010 A 
ATOM     18  C   LIG    1      171.550 167.875 227.547  0.00  0.00    +0.050 A 
ATOM     19  C   LIG    1      171.867 169.145 227.108  0.00  0.00    -0.100 A 
ATOM     20  C   LIG    1      170.872 170.107 226.990  0.00  0.00    +0.130 A 
ATOM     21  C   LIG    1      173.293 169.489 226.758  0.00  0.00    +0.100 C 
ATOM     22  C   LIG    1      169.558 169.784 227.308  0.00  0.00    +0.020 A 
ENDBRANCH  13  20
ENDBRANCH   1  13
TORSDOF 2
ENDMDL
MODEL 7
REMARK VINA RESULT:      -7.6      2.805      4.662
REMARK  Name = ZINC000001721128
REMARK                            x       y       z     vdW  Elec       q    Type
REMARK                         _______ _______ _______ _____ _____    ______ ____
ROOT
ATOM      1  N   LIG    1      174.553 171.382 225.733  0.00  0.00    -0.040 NA
ATOM      2  C   LIG    1      173.994 170.274 226.182  0.00  0.00    -0.160 C 
ATOM      3  C   LIG    1      172.528 170.139 226.289  0.00  0.00    +0.560 C 
ATOM      4  N   LIG    1      172.029 168.975 226.756  0.00  0.00    -0.560 N 
ATOM      5  C   LIG    1      172.829 167.963 227.116  0.00  0.00    +0.710 C 
ATOM      6  N   LIG    1      174.166 168.014 227.045  0.00  0.00    -0.560 N 
ATOM      7  C   LIG    1      174.951 166.850 227.464  0.00  0.00    +0.360 C 
ATOM      8  O   LIG    1      172.315 166.942 227.528  0.00  0.00    -0.520 OA
ATOM      9  C   LIG    1      170.577 168.815 226.871  0.00  0.00    +0.360 C 
ATOM     10  O   LIG    1      171.791 171.050 225.965  0.00  0.00    -0.510 OA
ATOM     11  C   LIG    1      174.808 169.112 226.592  0.00  0.00    +0.600 C 
ATOM     12  O   LIG    1      176.022 169.146 226.532  0.00  0.00    -0.460 OA
ENDROOT
BRANCH   1  13
ATOM     13  N   LIG    1      173.836 172.440 225.553  0.00  0.00    -0.440 N 
ATOM     14  H   LIG    1      172.923 172.358 225.237  0.00  0.00    +0.420 HD
BRANCH  13  20
ATOM     15  C   LIG    1      177.097 175.951 224.471  0.00  0.00    +0.100 C 
ATOM     16  C   LIG    1      175.955 175.429 225.304  0.00  0.00    -0.060 A 
ATOM     17  C   LIG    1      175.438 176.202 226.328  0.00  0.00    +0.010 A 
ATOM     18  C   LIG    1      174.390 175.728 227.096  0.00  0.00    +0.050 A 
ATOM     19  C   LIG    1      173.856 174.480 226.841  0.00  0.00    -0.100 A 
ATOM     20  C   LIG    1      174.372 173.700 225.814  0.00  0.00    +0.130 A 
ATOM     21  C   LIG    1      172.713 173.963 227.678  0.00  0.00    +0.100 C 
ATOM     22  C   LIG    1      175.422 174.183 225.041  0.00  0.00    +0.020 A 
ENDBRANCH  13  20
ENDBRANCH   1  13
TORSDOF 2
ENDMDL
MODEL 8
REMARK VINA RESULT:      -7.6      2.422      3.568
REMARK  Name = ZINC000001721128
REMARK                            x       y       z     vdW  Elec       q    Type
REMARK                         _______ _______ _______ _____ _____    ______ ____
ROOT
ATOM      1  N   LIG    1      172.515 171.718 225.621  0.00  0.00    -0.040 NA
ATOM      2  C   LIG    1      171.336 171.312 225.191  0.00  0.00    -0.160 C 
ATOM      3  C   LIG    1      170.728 171.870 223.966  0.00  0.00    +0.560 C 
ATOM      4  N   LIG    1      169.519 171.405 223.588  0.00  0.00    -0.560 N 
ATOM      5  C   LIG    1      168.877 170.464 224.293  0.00  0.00    +0.710 C 
ATOM      6  N   LIG    1      169.367 169.913 225.412  0.00  0.00    -0.560 N 
ATOM      7  C   LIG    1      168.583 168.891 226.109  0.00  0.00    +0.360 C 
ATOM      8  O   LIG    1      167.791 170.090 223.897  0.00  0.00    -0.520 OA
ATOM      9  C   LIG    1      168.894 171.942 222.376  0.00  0.00    +0.360 C 
ATOM     10  O   LIG    1      171.301 172.724 223.317  0.00  0.00    -0.510 OA
ATOM     11  C   LIG    1      170.569 170.275 225.909  0.00  0.00    +0.600 C 
ATOM     12  O   LIG    1      171.003 169.767 226.925  0.00  0.00    -0.460 OA
ENDROOT
BRANCH   1  13
ATOM     13  N   LIG    1      173.080 172.746 225.083  0.00  0.00    -0.440 N 
ATOM     14  H   LIG    1      173.327 172.727 224.145  0.00  0.00    +0.420 HD
BRANCH  13  20
ATOM     15  C   LIG    1      171.423 176.368 227.959  0.00  0.00    +0.100 C 
ATOM     16  C   LIG    1      172.552 175.661 227.254  0.00  0.00    -0.060 A 
ATOM     17  C   LIG    1      173.844 176.140 227.368  0.00  0.00    +0.010 A 
ATOM     18  C   LIG    1      174.884 175.494 226.723  0.00  0.00    +0.050 A 
ATOM     19  C   LIG    1      174.634 174.367 225.965  0.00  0.00    -0.100 A 
ATOM     20  C   LIG    1      173.337 173.883 225.848  0.00  0.00    +0.130 A 
ATOM     21  C   LIG    1      175.767 173.664 225.262  0.00  0.00    +0.100 C 
ATOM     22  C   LIG    1      172.296 174.531 226.502  0.00  0.00    +0.020 A 
ENDBRANCH  13  20
ENDBRANCH   1  13
TORSDOF 2
ENDMDL
MODEL 9
REMARK VINA RESULT:      -7.5      5.293      6.315
REMARK  Name = ZINC000001721128
REMARK                            x       y       z     vdW  Elec       q    Type
REMARK                         _______ _______ _______ _____ _____    ______ ____
ROOT
ATOM      1  N   LIG    1      169.077 171.921 222.377  0.00  0.00    -0.040 NA
ATOM      2  C   LIG    1      169.541 171.474 223.528  0.00  0.00    -0.160 C 
ATOM      3  C   LIG    1      170.831 171.943 224.074  0.00  0.00    +0.560 C 
ATOM      4  N   LIG    1      171.241 171.441 225.258  0.00  0.00    -0.560 N 
ATOM      5  C   LIG    1      170.510 170.542 225.930  0.00  0.00    +0.710 C 
ATOM      6  N   LIG    1      169.332 170.072 225.496  0.00  0.00    -0.560 N 
ATOM      7  C   LIG    1      168.611 169.089 226.309  0.00  0.00    +0.360 C 
ATOM      8  O   LIG    1      170.937 170.131 226.990  0.00  0.00    -0.520 OA
ATOM      9  C   LIG    1      172.517 171.891 225.821  0.00  0.00    +0.360 C 
ATOM     10  O   LIG    1      171.504 172.760 223.474  0.00  0.00    -0.510 OA
ATOM     11  C   LIG    1      168.792 170.487 224.331  0.00  0.00    +0.600 C 
ATOM     12  O   LIG    1      167.721 170.053 223.949  0.00  0.00    -0.460 OA
ENDROOT
BRANCH   1  13
ATOM     13  N   LIG    1      169.828 172.640 221.613  0.00  0.00    -0.440 N 
ATOM     14  H   LIG    1      170.724 172.879 221.900  0.00  0.00    +0.420 HD
BRANCH  13  20
ATOM     15  C   LIG    1      166.078 174.118 218.804  0.00  0.00    +0.100 C 
ATOM     16  C   LIG    1      167.540 173.798 218.984  0.00  0.00    -0.060 A 
ATOM     17  C   LIG    1      168.412 173.936 217.920  0.00  0.00    +0.010 A 
ATOM     18  C   LIG    1      169.755 173.644 218.080  0.00  0.00    +0.050 A 
ATOM     19  C   LIG    1      170.228 173.214 219.304  0.00  0.00    -0.100 A 
ATOM     20  C   LIG    1      169.355 173.074 220.376  0.00  0.00    +0.130 A 
ATOM     21  C   LIG    1      171.691 172.895 219.478  0.00  0.00    +0.100 C 
ATOM     22  C   LIG    1      168.007 173.374 220.212  0.00  0.00    +0.020 A 
ENDBRANCH  13  20
ENDBRANCH   1  13
TORSDOF 2
ENDMDL
MODEL 10
REMARK VINA RESULT:      -7.4      2.628      6.690
REMARK  Name = ZINC000001721128
REMARK                            x       y       z     vdW  Elec       q    Type
REMARK                         _______ _______ _______ _____ _____    ______ ____
ROOT
ATOM      1  N   LIG    1      171.538 172.036 226.520  0.00  0.00    -0.040 NA
ATOM      2  C   LIG    1      172.381 173.051 226.528  0.00  0.00    -0.160 C 
ATOM      3  C   LIG    1      173.670 172.988 225.810  0.00  0.00    +0.560 C 
ATOM      4  N   LIG    1      174.480 174.065 225.863  0.00  0.00    -0.560 N 
ATOM      5  C   LIG    1      174.139 175.168 226.544  0.00  0.00    +0.710 C 
ATOM      6  N   LIG    1      172.988 175.296 227.217  0.00  0.00    -0.560 N 
ATOM      7  C   LIG    1      172.711 176.545 227.930  0.00  0.00    +0.360 C 
ATOM      8  O   LIG    1      174.915 176.102 226.551  0.00  0.00    -0.520 OA
ATOM      9  C   LIG    1      175.765 174.028 225.158  0.00  0.00    +0.360 C 
ATOM     10  O   LIG    1      173.991 171.993 225.188  0.00  0.00    -0.510 OA
ATOM     11  C   LIG    1      172.074 174.302 227.250  0.00  0.00    +0.600 C 
ATOM     12  O   LIG    1      171.032 174.431 227.864  0.00  0.00    -0.460 OA
ENDROOT
BRANCH   1  13
ATOM     13  N   LIG    1      171.903 170.897 226.038  0.00  0.00    -0.440 N 
ATOM     14  H   LIG    1      172.482 170.863 225.260  0.00  0.00    +0.420 HD
BRANCH  13  20
ATOM     15  C   LIG    1      168.211 168.101 227.679  0.00  0.00    +0.100 C 
ATOM     16  C   LIG    1      169.682 168.330 227.442  0.00  0.00    -0.060 A 
ATOM     17  C   LIG    1      170.600 167.366 227.815  0.00  0.00    +0.010 A 
ATOM     18  C   LIG    1      171.951 167.571 227.599  0.00  0.00    +0.050 A 
ATOM     19  C   LIG    1      172.387 168.742 227.010  0.00  0.00    -0.100 A 
ATOM     20  C   LIG    1      171.467 169.714 226.634  0.00  0.00    +0.130 A 
ATOM     21  C   LIG    1      173.859 168.966 226.775  0.00  0.00    +0.100 C 
ATOM     22  C   LIG    1      170.111 169.500 226.847  0.00  0.00    +0.020 A 
ENDBRANCH  13  20
ENDBRANCH   1  13
TORSDOF 2
ENDMDL
