MODEL 1
REMARK VINA RESULT:      -8.8      0.000      0.000
REMARK  Name = ZINC000204013296
REMARK                            x       y       z     vdW  Elec       q    Type
REMARK                         _______ _______ _______ _____ _____    ______ ____
ROOT
ATOM      1  C   LIG    1      170.968 175.024 227.391  0.00  0.00    -0.070 A 
ATOM      2  C   LIG    1      171.332 173.724 227.093  0.00  0.00    +0.050 A 
ATOM      3  C   LIG    1      172.501 173.198 227.609  0.00  0.00    -0.070 A 
ATOM      4  C   LIG    1      173.306 173.972 228.423  0.00  0.00    +0.020 A 
ATOM      5  C   LIG    1      172.942 175.271 228.723  0.00  0.00    +0.030 A 
ATOM      6  C   LIG    1      171.775 175.799 228.202  0.00  0.00    +0.020 A 
ENDROOT
BRANCH   1  13
ATOM      7  O   LIG    1      168.113 174.108 227.941  0.00  0.00    -0.400 OA
ATOM      8  C   LIG    1      168.510 175.227 227.697  0.00  0.00    +0.390 C 
ATOM      9  C   LIG    1      167.939 176.487 228.191  0.00  0.00    +0.020 C 
ATOM     10  C   LIG    1      168.623 177.540 227.725  0.00  0.00    +0.020 C 
ATOM     11  C   LIG    1      169.733 177.110 226.866  0.00  0.00    +0.390 C 
ATOM     12  O   LIG    1      170.530 177.827 226.300  0.00  0.00    -0.400 OA
ATOM     13  C   LIG    1      169.693 175.597 226.828  0.00  0.00    -0.010 C 
ENDBRANCH   1  13
BRANCH   3  14
ATOM     14  C   LIG    1      172.898 171.781 227.284  0.00  0.00    -0.010 C 
ATOM     15  C   LIG    1      173.896 171.760 226.145  0.00  0.00    +0.390 C 
ATOM     16  C   LIG    1      175.125 171.152 226.672  0.00  0.00    +0.020 C 
ATOM     17  C   LIG    1      174.980 170.815 227.961  0.00  0.00    +0.020 C 
ATOM     18  O   LIG    1      173.716 172.167 225.017  0.00  0.00    -0.400 OA
ATOM     19  C   LIG    1      173.638 171.159 228.448  0.00  0.00    +0.390 C 
ATOM     20  O   LIG    1      173.207 170.979 229.567  0.00  0.00    -0.400 OA
ENDBRANCH   3  14
TORSDOF 2
ENDMDL
MODEL 2
REMARK VINA RESULT:      -8.7      0.040      6.405
REMARK  Name = ZINC000204013296
REMARK                            x       y       z     vdW  Elec       q    Type
REMARK                         _______ _______ _______ _____ _____    ______ ____
ROOT
ATOM      1  C   LIG    1      172.501 173.219 227.587  0.00  0.00    -0.070 A 
ATOM      2  C   LIG    1      171.331 173.742 227.068  0.00  0.00    +0.050 A 
ATOM      3  C   LIG    1      170.954 175.034 227.381  0.00  0.00    -0.070 A 
ATOM      4  C   LIG    1      171.746 175.803 228.212  0.00  0.00    +0.020 A 
ATOM      5  C   LIG    1      172.916 175.281 228.730  0.00  0.00    +0.030 A 
ATOM      6  C   LIG    1      173.291 173.987 228.421  0.00  0.00    +0.020 A 
ENDROOT
BRANCH   1  13
ATOM      7  O   LIG    1      173.781 172.228 225.004  0.00  0.00    -0.400 OA
ATOM      8  C   LIG    1      173.935 171.806 226.130  0.00  0.00    +0.390 C 
ATOM      9  C   LIG    1      175.154 171.197 226.678  0.00  0.00    +0.020 C 
ATOM     10  C   LIG    1      174.980 170.841 227.958  0.00  0.00    +0.020 C 
ATOM     11  C   LIG    1      173.625 171.170 228.418  0.00  0.00    +0.390 C 
ATOM     12  O   LIG    1      173.167 170.972 229.522  0.00  0.00    -0.400 OA
ATOM     13  C   LIG    1      172.912 171.810 227.245  0.00  0.00    -0.010 C 
ENDBRANCH   1  13
BRANCH   3  14
ATOM     14  C   LIG    1      169.677 175.604 226.816  0.00  0.00    -0.010 C 
ATOM     15  C   LIG    1      168.500 175.237 227.695  0.00  0.00    +0.390 C 
ATOM     16  C   LIG    1      167.926 176.499 228.180  0.00  0.00    +0.020 C 
ATOM     17  C   LIG    1      168.607 177.551 227.704  0.00  0.00    +0.020 C 
ATOM     18  O   LIG    1      168.108 174.119 227.950  0.00  0.00    -0.400 OA
ATOM     19  C   LIG    1      169.716 177.117 226.845  0.00  0.00    +0.390 C 
ATOM     20  O   LIG    1      170.509 177.832 226.272  0.00  0.00    -0.400 OA
ENDBRANCH   3  14
TORSDOF 2
ENDMDL
MODEL 3
REMARK VINA RESULT:      -8.5      3.307      4.324
REMARK  Name = ZINC000204013296
REMARK                            x       y       z     vdW  Elec       q    Type
REMARK                         _______ _______ _______ _____ _____    ______ ____
ROOT
ATOM      1  C   LIG    1      170.532 173.732 226.692  0.00  0.00    -0.070 A 
ATOM      2  C   LIG    1      169.592 172.722 226.769  0.00  0.00    +0.050 A 
ATOM      3  C   LIG    1      169.707 171.608 225.959  0.00  0.00    -0.070 A 
ATOM      4  C   LIG    1      170.762 171.503 225.072  0.00  0.00    +0.020 A 
ATOM      5  C   LIG    1      171.703 172.513 224.996  0.00  0.00    +0.030 A 
ATOM      6  C   LIG    1      171.585 173.629 225.802  0.00  0.00    +0.020 A 
ENDROOT
BRANCH   1  13
ATOM      7  O   LIG    1      172.387 176.148 226.809  0.00  0.00    -0.400 OA
ATOM      8  C   LIG    1      171.191 176.108 227.003  0.00  0.00    +0.390 C 
ATOM      9  C   LIG    1      170.221 177.175 226.725  0.00  0.00    +0.020 C 
ATOM     10  C   LIG    1      168.981 176.798 227.060  0.00  0.00    +0.020 C 
ATOM     11  C   LIG    1      168.973 175.432 227.602  0.00  0.00    +0.390 C 
ATOM     12  O   LIG    1      168.006 174.814 227.991  0.00  0.00    -0.400 OA
ATOM     13  C   LIG    1      170.407 174.946 227.575  0.00  0.00    -0.010 C 
ENDBRANCH   1  13
BRANCH   3  14
ATOM     14  C   LIG    1      168.681 170.506 226.043  0.00  0.00    -0.010 C 
ATOM     15  C   LIG    1      168.416 169.925 224.670  0.00  0.00    +0.390 C 
ATOM     16  C   LIG    1      168.795 168.507 224.731  0.00  0.00    +0.020 C 
ATOM     17  C   LIG    1      169.244 168.182 225.952  0.00  0.00    +0.020 C 
ATOM     18  O   LIG    1      167.977 170.516 223.707  0.00  0.00    -0.400 OA
ATOM     19  C   LIG    1      169.218 169.344 226.850  0.00  0.00    +0.390 C 
ATOM     20  O   LIG    1      169.562 169.367 228.012  0.00  0.00    -0.400 OA
ENDBRANCH   3  14
TORSDOF 2
ENDMDL
MODEL 4
REMARK VINA RESULT:      -8.5      3.300      6.200
REMARK  Name = ZINC000204013296
REMARK                            x       y       z     vdW  Elec       q    Type
REMARK                         _______ _______ _______ _____ _____    ______ ____
ROOT
ATOM      1  C   LIG    1      169.716 171.598 225.963  0.00  0.00    -0.070 A 
ATOM      2  C   LIG    1      169.600 172.715 226.770  0.00  0.00    +0.050 A 
ATOM      3  C   LIG    1      170.533 173.731 226.681  0.00  0.00    -0.070 A 
ATOM      4  C   LIG    1      171.581 173.630 225.786  0.00  0.00    +0.020 A 
ATOM      5  C   LIG    1      171.697 172.514 224.979  0.00  0.00    +0.030 A 
ATOM      6  C   LIG    1      170.767 171.496 225.071  0.00  0.00    +0.020 A 
ENDROOT
BRANCH   1  13
ATOM      7  O   LIG    1      167.964 170.479 223.733  0.00  0.00    -0.400 OA
ATOM      8  C   LIG    1      168.420 169.899 224.695  0.00  0.00    +0.390 C 
ATOM      9  C   LIG    1      168.813 168.485 224.761  0.00  0.00    +0.020 C 
ATOM     10  C   LIG    1      169.278 168.170 225.977  0.00  0.00    +0.020 C 
ATOM     11  C   LIG    1      169.251 169.337 226.869  0.00  0.00    +0.390 C 
ATOM     12  O   LIG    1      169.607 169.369 228.028  0.00  0.00    -0.400 OA
ATOM     13  C   LIG    1      168.699 170.491 226.060  0.00  0.00    -0.010 C 
ENDBRANCH   1  13
BRANCH   3  14
ATOM     14  C   LIG    1      170.407 174.949 227.561  0.00  0.00    -0.010 C 
ATOM     15  C   LIG    1      171.173 176.111 226.966  0.00  0.00    +0.390 C 
ATOM     16  C   LIG    1      170.192 177.171 226.698  0.00  0.00    +0.020 C 
ATOM     17  C   LIG    1      168.959 176.785 227.055  0.00  0.00    +0.020 C 
ATOM     18  O   LIG    1      172.366 176.158 226.752  0.00  0.00    -0.400 OA
ATOM     19  C   LIG    1      168.970 175.423 227.603  0.00  0.00    +0.390 C 
ATOM     20  O   LIG    1      168.014 174.800 228.010  0.00  0.00    -0.400 OA
ENDBRANCH   3  14
TORSDOF 2
ENDMDL
MODEL 5
REMARK VINA RESULT:      -8.4      0.916      2.058
REMARK  Name = ZINC000204013296
REMARK                            x       y       z     vdW  Elec       q    Type
REMARK                         _______ _______ _______ _____ _____    ______ ____
ROOT
ATOM      1  C   LIG    1      171.029 175.196 227.355  0.00  0.00    -0.070 A 
ATOM      2  C   LIG    1      171.581 174.007 226.917  0.00  0.00    +0.050 A 
ATOM      3  C   LIG    1      172.789 173.575 227.432  0.00  0.00    -0.070 A 
ATOM      4  C   LIG    1      173.444 174.332 228.384  0.00  0.00    +0.020 A 
ATOM      5  C   LIG    1      172.892 175.521 228.823  0.00  0.00    +0.030 A 
ATOM      6  C   LIG    1      171.687 175.955 228.304  0.00  0.00    +0.020 A 
ENDROOT
BRANCH   1  13
ATOM      7  O   LIG    1      168.251 174.089 227.946  0.00  0.00    -0.400 OA
ATOM      8  C   LIG    1      168.565 175.229 227.679  0.00  0.00    +0.390 C 
ATOM      9  C   LIG    1      167.909 176.454 228.156  0.00  0.00    +0.020 C 
ATOM     10  C   LIG    1      168.513 177.545 227.666  0.00  0.00    +0.020 C 
ATOM     11  C   LIG    1      169.645 177.179 226.804  0.00  0.00    +0.390 C 
ATOM     12  O   LIG    1      170.384 177.941 226.218  0.00  0.00    -0.400 OA
ATOM     13  C   LIG    1      169.712 175.667 226.793  0.00  0.00    -0.010 C 
ENDBRANCH   1  13
BRANCH   3  14
ATOM     14  C   LIG    1      173.391 172.278 226.954  0.00  0.00    -0.010 C 
ATOM     15  C   LIG    1      172.591 171.102 227.474  0.00  0.00    +0.390 C 
ATOM     16  C   LIG    1      172.077 170.388 226.298  0.00  0.00    +0.020 C 
ATOM     17  C   LIG    1      172.469 170.987 225.163  0.00  0.00    +0.020 C 
ATOM     18  O   LIG    1      172.409 170.807 228.636  0.00  0.00    -0.400 OA
ATOM     19  C   LIG    1      173.289 172.171 225.448  0.00  0.00    +0.390 C 
ATOM     20  O   LIG    1      173.787 172.918 224.634  0.00  0.00    -0.400 OA
ENDBRANCH   3  14
TORSDOF 2
ENDMDL
MODEL 6
REMARK VINA RESULT:      -8.2      2.370      4.402
REMARK  Name = ZINC000204013296
REMARK                            x       y       z     vdW  Elec       q    Type
REMARK                         _______ _______ _______ _____ _____    ______ ____
ROOT
ATOM      1  C   LIG    1      170.755 172.724 226.257  0.00  0.00    -0.070 A 
ATOM      2  C   LIG    1      172.008 172.261 226.612  0.00  0.00    +0.050 A 
ATOM      3  C   LIG    1      172.835 173.040 227.399  0.00  0.00    -0.070 A 
ATOM      4  C   LIG    1      172.409 174.282 227.832  0.00  0.00    +0.020 A 
ATOM      5  C   LIG    1      171.155 174.744 227.479  0.00  0.00    +0.030 A 
ATOM      6  C   LIG    1      170.330 173.967 226.687  0.00  0.00    +0.020 A 
ENDROOT
BRANCH   1  13
ATOM      7  O   LIG    1      171.543 170.994 223.874  0.00  0.00    -0.400 OA
ATOM      8  C   LIG    1      170.651 170.811 224.674  0.00  0.00    +0.390 C 
ATOM      9  C   LIG    1      170.137 169.513 225.133  0.00  0.00    +0.020 C 
ATOM     10  C   LIG    1      169.147 169.674 226.021  0.00  0.00    +0.020 C 
ATOM     11  C   LIG    1      168.882 171.098 226.263  0.00  0.00    +0.390 C 
ATOM     12  O   LIG    1      168.049 171.562 227.011  0.00  0.00    -0.400 OA
ATOM     13  C   LIG    1      169.854 171.874 225.399  0.00  0.00    -0.010 C 
ENDBRANCH   1  13
BRANCH   3  14
ATOM     14  C   LIG    1      174.202 172.536 227.785  0.00  0.00    -0.010 C 
ATOM     15  C   LIG    1      174.083 171.317 228.677  0.00  0.00    +0.390 C 
ATOM     16  C   LIG    1      174.736 170.210 227.968  0.00  0.00    +0.020 C 
ATOM     17  C   LIG    1      175.221 170.615 226.785  0.00  0.00    +0.020 C 
ATOM     18  O   LIG    1      173.551 171.266 229.765  0.00  0.00    -0.400 OA
ATOM     19  C   LIG    1      174.948 172.041 226.564  0.00  0.00    +0.390 C 
ATOM     20  O   LIG    1      175.258 172.694 225.592  0.00  0.00    -0.400 OA
ENDBRANCH   3  14
TORSDOF 2
ENDMDL
MODEL 7
REMARK VINA RESULT:      -8.2      2.394      5.497
REMARK  Name = ZINC000204013296
REMARK                            x       y       z     vdW  Elec       q    Type
REMARK                         _______ _______ _______ _____ _____    ______ ____
ROOT
ATOM      1  C   LIG    1      172.823 172.960 227.421  0.00  0.00    -0.070 A 
ATOM      2  C   LIG    1      171.990 172.189 226.633  0.00  0.00    +0.050 A 
ATOM      3  C   LIG    1      170.747 172.670 226.264  0.00  0.00    -0.070 A 
ATOM      4  C   LIG    1      170.338 173.921 226.685  0.00  0.00    +0.020 A 
ATOM      5  C   LIG    1      171.171 174.693 227.473  0.00  0.00    +0.030 A 
ATOM      6  C   LIG    1      172.412 174.210 227.845  0.00  0.00    +0.020 A 
ENDROOT
BRANCH   1  13
ATOM      7  O   LIG    1      173.490 171.125 229.762  0.00  0.00    -0.400 OA
ATOM      8  C   LIG    1      174.040 171.199 228.684  0.00  0.00    +0.390 C 
ATOM      9  C   LIG    1      174.696 170.104 227.957  0.00  0.00    +0.020 C 
ATOM     10  C   LIG    1      175.202 170.534 226.793  0.00  0.00    +0.020 C 
ATOM     11  C   LIG    1      174.943 171.967 226.603  0.00  0.00    +0.390 C 
ATOM     12  O   LIG    1      175.275 172.642 225.653  0.00  0.00    -0.400 OA
ATOM     13  C   LIG    1      174.177 172.436 227.822  0.00  0.00    -0.010 C 
ENDBRANCH   1  13
BRANCH   3  14
ATOM     14  C   LIG    1      169.839 171.829 225.404  0.00  0.00    -0.010 C 
ATOM     15  C   LIG    1      170.634 170.762 224.682  0.00  0.00    +0.390 C 
ATOM     16  C   LIG    1      170.110 169.466 225.132  0.00  0.00    +0.020 C 
ATOM     17  C   LIG    1      169.117 169.632 226.018  0.00  0.00    +0.020 C 
ATOM     18  O   LIG    1      171.531 170.942 223.886  0.00  0.00    -0.400 OA
ATOM     19  C   LIG    1      168.862 171.056 226.264  0.00  0.00    +0.390 C 
ATOM     20  O   LIG    1      168.030 171.523 227.012  0.00  0.00    -0.400 OA
ENDBRANCH   3  14
TORSDOF 2
ENDMDL
MODEL 8
REMARK VINA RESULT:      -8.1      3.103      5.286
REMARK  Name = ZINC000204013296
REMARK                            x       y       z     vdW  Elec       q    Type
REMARK                         _______ _______ _______ _____ _____    ______ ____
ROOT
ATOM      1  C   LIG    1      170.900 171.360 226.292  0.00  0.00    -0.070 A 
ATOM      2  C   LIG    1      171.314 172.586 225.808  0.00  0.00    +0.050 A 
ATOM      3  C   LIG    1      172.421 173.206 226.356  0.00  0.00    -0.070 A 
ATOM      4  C   LIG    1      173.114 172.600 227.387  0.00  0.00    +0.020 A 
ATOM      5  C   LIG    1      172.700 171.373 227.870  0.00  0.00    +0.030 A 
ATOM      6  C   LIG    1      171.590 170.755 227.326  0.00  0.00    +0.020 A 
ENDROOT
BRANCH   1  13
ATOM      7  O   LIG    1      170.808 168.725 224.761  0.00  0.00    -0.400 OA
ATOM      8  C   LIG    1      169.957 169.210 225.476  0.00  0.00    +0.390 C 
ATOM      9  C   LIG    1      168.986 168.480 226.302  0.00  0.00    +0.020 C 
ATOM     10  C   LIG    1      168.189 169.325 226.968  0.00  0.00    +0.020 C 
ATOM     11  C   LIG    1      168.532 170.721 226.667  0.00  0.00    +0.390 C 
ATOM     12  O   LIG    1      167.994 171.711 227.114  0.00  0.00    -0.400 OA
ATOM     13  C   LIG    1      169.692 170.684 225.695  0.00  0.00    -0.010 C 
ENDBRANCH   1  13
BRANCH   3  14
ATOM     14  C   LIG    1      172.874 174.544 225.828  0.00  0.00    -0.010 C 
ATOM     15  C   LIG    1      173.148 175.497 226.973  0.00  0.00    +0.390 C 
ATOM     16  C   LIG    1      174.568 175.864 226.885  0.00  0.00    +0.020 C 
ATOM     17  C   LIG    1      175.158 175.255 225.847  0.00  0.00    +0.020 C 
ATOM     18  O   LIG    1      172.351 175.883 227.800  0.00  0.00    -0.400 OA
ATOM     19  C   LIG    1      174.204 174.410 225.118  0.00  0.00    +0.390 C 
ATOM     20  O   LIG    1      174.436 173.735 224.139  0.00  0.00    -0.400 OA
ENDBRANCH   3  14
TORSDOF 2
ENDMDL
MODEL 9
REMARK VINA RESULT:      -8.1      3.098      4.972
REMARK  Name = ZINC000204013296
REMARK                            x       y       z     vdW  Elec       q    Type
REMARK                         _______ _______ _______ _____ _____    ______ ____
ROOT
ATOM      1  C   LIG    1      172.462 173.205 226.337  0.00  0.00    -0.070 A 
ATOM      2  C   LIG    1      171.363 172.583 225.775  0.00  0.00    +0.050 A 
ATOM      3  C   LIG    1      170.944 171.355 226.252  0.00  0.00    -0.070 A 
ATOM      4  C   LIG    1      171.624 170.750 227.293  0.00  0.00    +0.020 A 
ATOM      5  C   LIG    1      172.722 171.372 227.856  0.00  0.00    +0.030 A 
ATOM      6  C   LIG    1      173.144 172.597 227.375  0.00  0.00    +0.020 A 
ENDROOT
BRANCH   1  13
ATOM      7  O   LIG    1      172.365 175.892 227.773  0.00  0.00    -0.400 OA
ATOM      8  C   LIG    1      173.174 175.503 226.958  0.00  0.00    +0.390 C 
ATOM      9  C   LIG    1      174.596 175.868 226.890  0.00  0.00    +0.020 C 
ATOM     10  C   LIG    1      175.201 175.257 225.864  0.00  0.00    +0.020 C 
ATOM     11  C   LIG    1      174.257 174.410 225.123  0.00  0.00    +0.390 C 
ATOM     12  O   LIG    1      174.504 173.733 224.148  0.00  0.00    -0.400 OA
ATOM     13  C   LIG    1      172.918 174.543 225.816  0.00  0.00    -0.010 C 
ENDBRANCH   1  13
BRANCH   3  14
ATOM     14  C   LIG    1      169.746 170.677 225.639  0.00  0.00    -0.010 C 
ATOM     15  C   LIG    1      170.035 169.209 225.400  0.00  0.00    +0.390 C 
ATOM     16  C   LIG    1      169.068 168.452 226.205  0.00  0.00    +0.020 C 
ATOM     17  C   LIG    1      168.255 169.277 226.881  0.00  0.00    +0.020 C 
ATOM     18  O   LIG    1      170.897 168.749 224.683  0.00  0.00    -0.400 OA
ATOM     19  C   LIG    1      168.582 170.682 226.607  0.00  0.00    +0.390 C 
ATOM     20  O   LIG    1      168.029 171.656 227.068  0.00  0.00    -0.400 OA
ENDBRANCH   3  14
TORSDOF 2
ENDMDL
MODEL 10
REMARK VINA RESULT:      -8.0      2.620      5.825
REMARK  Name = ZINC000204013296
REMARK                            x       y       z     vdW  Elec       q    Type
REMARK                         _______ _______ _______ _____ _____    ______ ____
ROOT
ATOM      1  C   LIG    1      171.025 172.151 225.676  0.00  0.00    -0.070 A 
ATOM      2  C   LIG    1      170.504 173.004 226.631  0.00  0.00    +0.050 A 
ATOM      3  C   LIG    1      170.910 174.324 226.673  0.00  0.00    -0.070 A 
ATOM      4  C   LIG    1      171.837 174.791 225.761  0.00  0.00    +0.020 A 
ATOM      5  C   LIG    1      172.358 173.939 224.806  0.00  0.00    +0.030 A 
ATOM      6  C   LIG    1      171.955 172.617 224.766  0.00  0.00    +0.020 A 
ENDROOT
BRANCH   1  13
ATOM      7  O   LIG    1      171.592 169.962 227.721  0.00  0.00    -0.400 OA
ATOM      8  C   LIG    1      170.617 170.095 227.013  0.00  0.00    +0.390 C 
ATOM      9  C   LIG    1      169.241 169.695 227.332  0.00  0.00    +0.020 C 
ATOM     10  C   LIG    1      168.408 169.988 226.324  0.00  0.00    +0.020 C 
ATOM     11  C   LIG    1      169.129 170.620 225.211  0.00  0.00    +0.390 C 
ATOM     12  O   LIG    1      168.653 170.999 224.163  0.00  0.00    -0.400 OA
ATOM     13  C   LIG    1      170.582 170.711 225.630  0.00  0.00    -0.010 C 
ENDBRANCH   1  13
BRANCH   3  14
ATOM     14  C   LIG    1      170.342 175.254 227.715  0.00  0.00    -0.010 C 
ATOM     15  C   LIG    1      170.766 176.681 227.435  0.00  0.00    +0.390 C 
ATOM     16  C   LIG    1      169.535 177.450 227.209  0.00  0.00    +0.020 C 
ATOM     17  C   LIG    1      168.452 176.667 227.318  0.00  0.00    +0.020 C 
ATOM     18  O   LIG    1      171.900 177.107 227.404  0.00  0.00    -0.400 OA
ATOM     19  C   LIG    1      168.831 175.283 227.630  0.00  0.00    +0.390 C 
ATOM     20  O   LIG    1      168.080 174.346 227.788  0.00  0.00    -0.400 OA
ENDBRANCH   3  14
TORSDOF 2
ENDMDL
